*CLASS
&ALLOCATION_OBJECT
    1    1
ASSOCIATED
*STATE
NOT_ALLOCATED
    0
*ACTION
ALLOCATE
    0    0
*END_ACTION
*END_STATE
*STATE
&VARIABLE
    0
*ACTION
RELEASE
    0    0
*END_ACTION
*END_STATE
*STATE
NOT_THERE
    1
DEAD_STATE
*END_STATE
*END_CLASS
*OBJECT
&ALLOC
    0    0    0
*STATE
NOT_ALLOCATED
    1
INITIAL_STATE
*ACTION
ALLOCATE
    1    0
STRING
ID
&noval
*BLOCK
  0  0
terminate
&VARIABLE
*END_ACTION
*END_STATE
*STATE
&VARIABLE
    0
*ACTION
RELEASE
    0    0
*BLOCK
  0  0
terminate
NOT_ALLOCATED
*END_ACTION
*END_STATE
*END_OBJECT
*OBJECT
&DOMAIN
    0    0    0
*STATE
READY
    0
*ACTION
DIAG
    1    0
INT
LEVEL
0
*BLOCK
  0  0
terminate
READY
*END_ACTION
*END_STATE
*END_OBJECT
*CLASS
RIGHT_BACKTOP_HV_DOMAIN_V1_CLASS
    0    0
*STATE
NOT_READY
    0
*WHEN
 ( ANY_IN RIGHT_BACKFWCAENCHANNELA158......ES IN_STATE {ERROR,EMERGENCY_OFF} )
    1    0
    2
RIGHT_BACKFWCAENCHANNELA1580DEFAULT_FWSETSTATES
any_in
in_state
    2
ERROR
EMERGENCY_OFF
do
&END_IN_STATE_WHEN0
    0
&THIS_OBJECT
*WHEN
 ( ALL_IN RIGHT_BACKFWCAENCHANNELA158......STATE {RAMPING_STANDBY1,STANDBY1} )
    1    0
    2
RIGHT_BACKFWCAENCHANNELA1580DEFAULT_FWSETSTATES
all_in
in_state
    2
RAMPING_STANDBY1
STANDBY1
do
&END_IN_STATE_WHEN1
    0
&THIS_OBJECT
*WHEN
 ( ALL_IN RIGHT_BACKFWCAENCHANNELA158......STATE {RAMPING_STANDBY2,STANDBY2} )
    1    0
    2
RIGHT_BACKFWCAENCHANNELA1580DEFAULT_FWSETSTATES
all_in
in_state
    2
RAMPING_STANDBY2
STANDBY2
do
&END_IN_STATE_WHEN2
    0
&THIS_OBJECT
*WHEN
 ( ALL_IN RIGHT_BACKFWCAENCHANNELA158......ES IN_STATE {RAMPING_READY,READY} )
    1    0
    2
RIGHT_BACKFWCAENCHANNELA1580DEFAULT_FWSETSTATES
all_in
in_state
    2
RAMPING_READY
READY
do
&END_IN_STATE_WHEN3
    0
&THIS_OBJECT
*WHEN
 ( ALL_IN RIGHT_BACKFWCAENCHANNELA158......STATES IN_STATE {RAMPING_OFF,OFF} )
    1    0
    2
RIGHT_BACKFWCAENCHANNELA1580DEFAULT_FWSETSTATES
all_in
in_state
    2
RAMPING_OFF
OFF
do
&END_IN_STATE_WHEN4
    0
&THIS_OBJECT
*ACTION
GO_OFF
    0    0
*BLOCK
  0  0
do
GO_OFF
    0
&ALL_IN_RIGHT_BACKFWCAENCHANNELA1580DEFAULT_FWSETACTIONS
if
  1
 ( ANY_IN RIGHT_BACKFWCAENCHANNELA158......S NOT_IN_STATE {RAMPING_OFF, OFF} )
    1    0
    2
RIGHT_BACKFWCAENCHANNELA1580DEFAULT_FWSETSTATES
any_in
not_in_state
    2
RAMPING_OFF
OFF
  1  1
terminate
RAMPING_OFF
*BLOCK
  1  1
terminate
NOT_READY
*END_ACTION
*ACTION
GO_STANDBY1
    1    0
STRING
RUN_TYPE
"PHYSICS"
*BLOCK
  0  0
do
GO_STANDBY1
    1
RUN_TYPE
RUN_TYPE
&ALL_IN_RIGHT_BACKFWCAENCHANNELA1580DEFAULT_FWSETACTIONS
if
  1
 ( ANY_IN RIGHT_BACKFWCAENCHANNELA158......TATE {RAMPING_STANDBY1, STANDBY1} )
    1    0
    2
RIGHT_BACKFWCAENCHANNELA1580DEFAULT_FWSETSTATES
any_in
not_in_state
    2
RAMPING_STANDBY1
STANDBY1
  1  1
terminate
RAMPING_STANDBY1
*BLOCK
  1  1
terminate
NOT_READY
*END_ACTION
*ACTION
GO_STANDBY2
    1    0
STRING
RUN_TYPE
"PHYSICS"
*BLOCK
  0  0
do
GO_STANDBY2
    1
RUN_TYPE
RUN_TYPE
&ALL_IN_RIGHT_BACKFWCAENCHANNELA1580DEFAULT_FWSETACTIONS
if
  1
 ( ANY_IN RIGHT_BACKFWCAENCHANNELA158......TATE {RAMPING_STANDBY2, STANDBY2} )
    1    0
    2
RIGHT_BACKFWCAENCHANNELA1580DEFAULT_FWSETSTATES
any_in
not_in_state
    2
RAMPING_STANDBY2
STANDBY2
  1  1
terminate
RAMPING_STANDBY2
*BLOCK
  1  1
terminate
NOT_READY
*END_ACTION
*ACTION
GO_READY
    1    0
STRING
RUN_TYPE
"PHYSICS"
*BLOCK
  0  0
do
GO_READY
    1
RUN_TYPE
RUN_TYPE
&ALL_IN_RIGHT_BACKFWCAENCHANNELA1580DEFAULT_FWSETACTIONS
if
  1
 ( ANY_IN RIGHT_BACKFWCAENCHANNELA158......T_IN_STATE {RAMPING_READY, READY} )
    1    0
    2
RIGHT_BACKFWCAENCHANNELA1580DEFAULT_FWSETSTATES
any_in
not_in_state
    2
RAMPING_READY
READY
  1  1
terminate
RAMPING_READY
*BLOCK
  1  1
terminate
NOT_READY
*END_ACTION
*ACTION
DO_EMERGENCY_OFF
    0    0
*BLOCK
  0  0
do
DO_EMERGENCY_OFF
    0
&ALL_IN_RIGHT_BACKFWCAENCHANNELA1580DEFAULT_FWSETACTIONS
if
  1
 ( ANY_IN RIGHT_BACKFWCAENCHANNELA158......STATES NOT_IN_STATE EMERGENCY_OFF )
    1    0
    2
RIGHT_BACKFWCAENCHANNELA1580DEFAULT_FWSETSTATES
any_in
not_in_state
    1
EMERGENCY_OFF
  1  1
terminate
EMERGENCY_OFF
*BLOCK
  1  1
terminate
ERROR
*END_ACTION
*ACTION
LOAD
    1    0
STRING
RUN_TYPE
"PHYSICS"
*BLOCK
  0  0
do
RESET
    0
&ALL_IN_RIGHT_BACKFWCAENCHANNELA1580DEFAULT_FWSETACTIONS
do
LOAD
    2
RUN_TYPE
RUN_TYPE
SMODE
RUN_TYPE
&ALL_IN_RIGHT_BACKFWCAENCHANNELA1580DEFAULT_FWSETACTIONS
terminate
NOT_READY
*END_ACTION
*ACTION
RESET
    0    0
*BLOCK
  0  0
do
RESET
    0
&ALL_IN_RIGHT_BACKFWCAENCHANNELA1580DEFAULT_FWSETACTIONS
terminate
NOT_READY
*END_ACTION
*ACTION
&END_IN_STATE_WHEN0
    0    0
*BLOCK
  0  0
terminate
ERROR
*END_ACTION
*ACTION
&END_IN_STATE_WHEN1
    0    0
*BLOCK
  0  0
terminate
RAMPING_STANDBY1
*END_ACTION
*ACTION
&END_IN_STATE_WHEN2
    0    0
*BLOCK
  0  0
terminate
RAMPING_STANDBY2
*END_ACTION
*ACTION
&END_IN_STATE_WHEN3
    0    0
*BLOCK
  0  0
terminate
RAMPING_READY
*END_ACTION
*ACTION
&END_IN_STATE_WHEN4
    0    0
*BLOCK
  0  0
terminate
RAMPING_OFF
*END_ACTION
*END_STATE
*STATE
OFF
    0
*WHEN
 ( ANY_IN RIGHT_BACKFWCAENCHANNELA158......ES IN_STATE {ERROR,EMERGENCY_OFF} )
    1    0
    2
RIGHT_BACKFWCAENCHANNELA1580DEFAULT_FWSETSTATES
any_in
in_state
    2
ERROR
EMERGENCY_OFF
do
&END_IN_STATE_WHEN0
    0
&THIS_OBJECT
*WHEN
 ( ALL_IN RIGHT_BACKFWCAENCHANNELA158......STATE {RAMPING_STANDBY1,STANDBY1} )
    1    0
    2
RIGHT_BACKFWCAENCHANNELA1580DEFAULT_FWSETSTATES
all_in
in_state
    2
RAMPING_STANDBY1
STANDBY1
do
&END_IN_STATE_WHEN1
    0
&THIS_OBJECT
*WHEN
 ( ALL_IN RIGHT_BACKFWCAENCHANNELA158......STATE {RAMPING_STANDBY2,STANDBY2} )
    1    0
    2
RIGHT_BACKFWCAENCHANNELA1580DEFAULT_FWSETSTATES
all_in
in_state
    2
RAMPING_STANDBY2
STANDBY2
do
&END_IN_STATE_WHEN2
    0
&THIS_OBJECT
*WHEN
 ( ALL_IN RIGHT_BACKFWCAENCHANNELA158......ES IN_STATE {RAMPING_READY,READY} )
    1    0
    2
RIGHT_BACKFWCAENCHANNELA1580DEFAULT_FWSETSTATES
all_in
in_state
    2
RAMPING_READY
READY
do
&END_IN_STATE_WHEN3
    0
&THIS_OBJECT
*WHEN
 ( ANY_IN RIGHT_BACKFWCAENCHANNELA1580DEFAULT_FWSETSTATES NOT_IN_STATE OFF )
    1    0
    2
RIGHT_BACKFWCAENCHANNELA1580DEFAULT_FWSETSTATES
any_in
not_in_state
    1
OFF
do
&END_IN_STATE_WHEN4
    0
&THIS_OBJECT
*ACTION
GO_STANDBY1
    1    0
STRING
RUN_TYPE
"PHYSICS"
*BLOCK
  0  0
do
GO_STANDBY1
    1
RUN_TYPE
RUN_TYPE
&ALL_IN_RIGHT_BACKFWCAENCHANNELA1580DEFAULT_FWSETACTIONS
if
  1
 ( ANY_IN RIGHT_BACKFWCAENCHANNELA158......TATE {RAMPING_STANDBY1, STANDBY1} )
    1    0
    2
RIGHT_BACKFWCAENCHANNELA1580DEFAULT_FWSETSTATES
any_in
not_in_state
    2
RAMPING_STANDBY1
STANDBY1
  1  1
terminate
RAMPING_STANDBY1
*BLOCK
  1  1
terminate
NOT_READY
*END_ACTION
*ACTION
GO_STANDBY2
    1    0
STRING
RUN_TYPE
"PHYSICS"
*BLOCK
  0  0
do
GO_STANDBY2
    1
RUN_TYPE
RUN_TYPE
&ALL_IN_RIGHT_BACKFWCAENCHANNELA1580DEFAULT_FWSETACTIONS
if
  1
 ( ANY_IN RIGHT_BACKFWCAENCHANNELA158......TATE {RAMPING_STANDBY2, STANDBY2} )
    1    0
    2
RIGHT_BACKFWCAENCHANNELA1580DEFAULT_FWSETSTATES
any_in
not_in_state
    2
RAMPING_STANDBY2
STANDBY2
  1  1
terminate
RAMPING_STANDBY2
*BLOCK
  1  1
terminate
NOT_READY
*END_ACTION
*ACTION
GO_READY
    1    0
STRING
RUN_TYPE
"PHYSICS"
*BLOCK
  0  0
do
GO_READY
    1
RUN_TYPE
RUN_TYPE
&ALL_IN_RIGHT_BACKFWCAENCHANNELA1580DEFAULT_FWSETACTIONS
if
  1
 ( ANY_IN RIGHT_BACKFWCAENCHANNELA158......T_IN_STATE {RAMPING_READY, READY} )
    1    0
    2
RIGHT_BACKFWCAENCHANNELA1580DEFAULT_FWSETSTATES
any_in
not_in_state
    2
RAMPING_READY
READY
  1  1
terminate
RAMPING_READY
*BLOCK
  1  1
terminate
NOT_READY
*END_ACTION
*ACTION
DO_EMERGENCY_OFF
    0    0
*BLOCK
  0  0
do
DO_EMERGENCY_OFF
    0
&ALL_IN_RIGHT_BACKFWCAENCHANNELA1580DEFAULT_FWSETACTIONS
if
  1
 ( ANY_IN RIGHT_BACKFWCAENCHANNELA158......STATES NOT_IN_STATE EMERGENCY_OFF )
    1    0
    2
RIGHT_BACKFWCAENCHANNELA1580DEFAULT_FWSETSTATES
any_in
not_in_state
    1
EMERGENCY_OFF
  1  1
terminate
EMERGENCY_OFF
*BLOCK
  1  1
terminate
ERROR
*END_ACTION
*ACTION
RESET
    0    0
*BLOCK
  0  0
do
RESET
    0
&ALL_IN_RIGHT_BACKFWCAENCHANNELA1580DEFAULT_FWSETACTIONS
terminate
NOT_READY
*END_ACTION
*ACTION
&END_IN_STATE_WHEN0
    0    0
*BLOCK
  0  0
terminate
ERROR
*END_ACTION
*ACTION
&END_IN_STATE_WHEN1
    0    0
*BLOCK
  0  0
terminate
RAMPING_STANDBY1
*END_ACTION
*ACTION
&END_IN_STATE_WHEN2
    0    0
*BLOCK
  0  0
terminate
RAMPING_STANDBY2
*END_ACTION
*ACTION
&END_IN_STATE_WHEN3
    0    0
*BLOCK
  0  0
terminate
RAMPING_READY
*END_ACTION
*ACTION
&END_IN_STATE_WHEN4
    0    0
*BLOCK
  0  0
terminate
NOT_READY
*END_ACTION
*END_STATE
*STATE
RAMPING_STANDBY1
    0
*WHEN
 ( ALL_IN RIGHT_BACKFWCAENCHANNELA1580DEFAULT_FWSETSTATES IN_STATE STANDBY1 )
    1    0
    2
RIGHT_BACKFWCAENCHANNELA1580DEFAULT_FWSETSTATES
all_in
in_state
    1
STANDBY1
do
&END_IN_STATE_WHEN0
    0
&THIS_OBJECT
*WHEN
 ( ANY_IN RIGHT_BACKFWCAENCHANNELA158......STATE {RAMPING_STANDBY1,STANDBY1} )
    1    0
    2
RIGHT_BACKFWCAENCHANNELA1580DEFAULT_FWSETSTATES
any_in
not_in_state
    2
RAMPING_STANDBY1
STANDBY1
do
&END_IN_STATE_WHEN1
    0
&THIS_OBJECT
*ACTION
DO_EMERGENCY_OFF
    0    0
*BLOCK
  0  0
do
DO_EMERGENCY_OFF
    0
&ALL_IN_RIGHT_BACKFWCAENCHANNELA1580DEFAULT_FWSETACTIONS
if
  1
 ( ANY_IN RIGHT_BACKFWCAENCHANNELA158......STATES NOT_IN_STATE EMERGENCY_OFF )
    1    0
    2
RIGHT_BACKFWCAENCHANNELA1580DEFAULT_FWSETSTATES
any_in
not_in_state
    1
EMERGENCY_OFF
  1  1
terminate
EMERGENCY_OFF
*BLOCK
  1  1
terminate
ERROR
*END_ACTION
*ACTION
GO_OFF
    0    0
*BLOCK
  0  0
do
GO_OFF
    0
&ALL_IN_RIGHT_BACKFWCAENCHANNELA1580DEFAULT_FWSETACTIONS
if
  1
 ( ANY_IN RIGHT_BACKFWCAENCHANNELA158......S NOT_IN_STATE {RAMPING_OFF, OFF} )
    1    0
    2
RIGHT_BACKFWCAENCHANNELA1580DEFAULT_FWSETSTATES
any_in
not_in_state
    2
RAMPING_OFF
OFF
  1  1
terminate
RAMPING_OFF
*BLOCK
  1  1
terminate
NOT_READY
*END_ACTION
*ACTION
GO_STANDBY1
    1    0
STRING
RUN_TYPE
"PHYSICS"
*BLOCK
  0  0
do
GO_STANDBY1
    1
RUN_TYPE
RUN_TYPE
&ALL_IN_RIGHT_BACKFWCAENCHANNELA1580DEFAULT_FWSETACTIONS
if
  1
 ( ANY_IN RIGHT_BACKFWCAENCHANNELA158......TATE {RAMPING_STANDBY1, STANDBY1} )
    1    0
    2
RIGHT_BACKFWCAENCHANNELA1580DEFAULT_FWSETSTATES
any_in
not_in_state
    2
RAMPING_STANDBY1
STANDBY1
  1  1
terminate
RAMPING_STANDBY1
*BLOCK
  1  1
terminate
NOT_READY
*END_ACTION
*ACTION
GO_STANDBY2
    1    0
STRING
RUN_TYPE
"PHYSICS"
*BLOCK
  0  0
do
GO_STANDBY2
    1
RUN_TYPE
RUN_TYPE
&ALL_IN_RIGHT_BACKFWCAENCHANNELA1580DEFAULT_FWSETACTIONS
if
  1
 ( ANY_IN RIGHT_BACKFWCAENCHANNELA158......TATE {RAMPING_STANDBY2, STANDBY2} )
    1    0
    2
RIGHT_BACKFWCAENCHANNELA1580DEFAULT_FWSETSTATES
any_in
not_in_state
    2
RAMPING_STANDBY2
STANDBY2
  1  1
terminate
RAMPING_STANDBY2
*BLOCK
  1  1
terminate
NOT_READY
*END_ACTION
*ACTION
GO_READY
    1    0
STRING
RUN_TYPE
"PHYSICS"
*BLOCK
  0  0
do
GO_READY
    1
RUN_TYPE
RUN_TYPE
&ALL_IN_RIGHT_BACKFWCAENCHANNELA1580DEFAULT_FWSETACTIONS
if
  1
 ( ANY_IN RIGHT_BACKFWCAENCHANNELA158......T_IN_STATE {RAMPING_READY, READY} )
    1    0
    2
RIGHT_BACKFWCAENCHANNELA1580DEFAULT_FWSETSTATES
any_in
not_in_state
    2
RAMPING_READY
READY
  1  1
terminate
RAMPING_READY
*BLOCK
  1  1
terminate
NOT_READY
*END_ACTION
*ACTION
&END_IN_STATE_WHEN0
    0    0
*BLOCK
  0  0
terminate
STANDBY1
*END_ACTION
*ACTION
&END_IN_STATE_WHEN1
    0    0
*BLOCK
  0  0
terminate
NOT_READY
*END_ACTION
*END_STATE
*STATE
STANDBY1
    0
*WHEN
 ( ANY_IN RIGHT_BACKFWCAENCHANNELA158......ES IN_STATE {ERROR,EMERGENCY_OFF} )
    1    0
    2
RIGHT_BACKFWCAENCHANNELA1580DEFAULT_FWSETSTATES
any_in
in_state
    2
ERROR
EMERGENCY_OFF
do
&END_IN_STATE_WHEN0
    0
&THIS_OBJECT
*WHEN
 ( ALL_IN RIGHT_BACKFWCAENCHANNELA158......STATES IN_STATE {RAMPING_OFF,OFF} )
    1    0
    2
RIGHT_BACKFWCAENCHANNELA1580DEFAULT_FWSETSTATES
all_in
in_state
    2
RAMPING_OFF
OFF
do
&END_IN_STATE_WHEN1
    0
&THIS_OBJECT
*WHEN
 ( ALL_IN RIGHT_BACKFWCAENCHANNELA158......STATE {RAMPING_STANDBY2,STANDBY2} )
    1    0
    2
RIGHT_BACKFWCAENCHANNELA1580DEFAULT_FWSETSTATES
all_in
in_state
    2
RAMPING_STANDBY2
STANDBY2
do
&END_IN_STATE_WHEN2
    0
&THIS_OBJECT
*WHEN
 ( ALL_IN RIGHT_BACKFWCAENCHANNELA158......ES IN_STATE {RAMPING_READY,READY} )
    1    0
    2
RIGHT_BACKFWCAENCHANNELA1580DEFAULT_FWSETSTATES
all_in
in_state
    2
RAMPING_READY
READY
do
&END_IN_STATE_WHEN3
    0
&THIS_OBJECT
*WHEN
 ( ANY_IN RIGHT_BACKFWCAENCHANNELA158......FWSETSTATES NOT_IN_STATE STANDBY1 )
    1    0
    2
RIGHT_BACKFWCAENCHANNELA1580DEFAULT_FWSETSTATES
any_in
not_in_state
    1
STANDBY1
do
&END_IN_STATE_WHEN4
    0
&THIS_OBJECT
*ACTION
GO_STANDBY2
    1    0
STRING
RUN_TYPE
"PHYSICS"
*BLOCK
  0  0
do
GO_STANDBY2
    1
RUN_TYPE
RUN_TYPE
&ALL_IN_RIGHT_BACKFWCAENCHANNELA1580DEFAULT_FWSETACTIONS
if
  1
 ( ANY_IN RIGHT_BACKFWCAENCHANNELA158......TATE {RAMPING_STANDBY2, STANDBY2} )
    1    0
    2
RIGHT_BACKFWCAENCHANNELA1580DEFAULT_FWSETSTATES
any_in
not_in_state
    2
RAMPING_STANDBY2
STANDBY2
  1  1
terminate
RAMPING_STANDBY2
*BLOCK
  1  1
terminate
NOT_READY
*END_ACTION
*ACTION
GO_READY
    1    0
STRING
RUN_TYPE
"PHYSICS"
*BLOCK
  0  0
do
GO_READY
    1
RUN_TYPE
RUN_TYPE
&ALL_IN_RIGHT_BACKFWCAENCHANNELA1580DEFAULT_FWSETACTIONS
if
  1
 ( ANY_IN RIGHT_BACKFWCAENCHANNELA158......T_IN_STATE {RAMPING_READY, READY} )
    1    0
    2
RIGHT_BACKFWCAENCHANNELA1580DEFAULT_FWSETSTATES
any_in
not_in_state
    2
RAMPING_READY
READY
  1  1
terminate
RAMPING_READY
*BLOCK
  1  1
terminate
NOT_READY
*END_ACTION
*ACTION
GO_OFF
    0    0
*BLOCK
  0  0
do
GO_OFF
    0
&ALL_IN_RIGHT_BACKFWCAENCHANNELA1580DEFAULT_FWSETACTIONS
if
  1
 ( ANY_IN RIGHT_BACKFWCAENCHANNELA158......S NOT_IN_STATE {RAMPING_OFF, OFF} )
    1    0
    2
RIGHT_BACKFWCAENCHANNELA1580DEFAULT_FWSETSTATES
any_in
not_in_state
    2
RAMPING_OFF
OFF
  1  1
terminate
RAMPING_OFF
*BLOCK
  1  1
terminate
NOT_READY
*END_ACTION
*ACTION
RESET
    0    0
*BLOCK
  0  0
do
RESET
    0
&ALL_IN_RIGHT_BACKFWCAENCHANNELA1580DEFAULT_FWSETACTIONS
terminate
NOT_READY
*END_ACTION
*ACTION
DO_EMERGENCY_OFF
    0    0
*BLOCK
  0  0
do
DO_EMERGENCY_OFF
    0
&ALL_IN_RIGHT_BACKFWCAENCHANNELA1580DEFAULT_FWSETACTIONS
if
  1
 ( ANY_IN RIGHT_BACKFWCAENCHANNELA158......STATES NOT_IN_STATE EMERGENCY_OFF )
    1    0
    2
RIGHT_BACKFWCAENCHANNELA1580DEFAULT_FWSETSTATES
any_in
not_in_state
    1
EMERGENCY_OFF
  1  1
terminate
EMERGENCY_OFF
*BLOCK
  1  1
terminate
ERROR
*END_ACTION
*ACTION
GO_STANDBY1
    1    0
STRING
RUN_TYPE
"PHYSICS"
*BLOCK
  0  0
do
GO_STANDBY1
    1
RUN_TYPE
RUN_TYPE
&ALL_IN_RIGHT_BACKFWCAENCHANNELA1580DEFAULT_FWSETACTIONS
if
  1
 ( ANY_IN RIGHT_BACKFWCAENCHANNELA158......TATE {RAMPING_STANDBY1, STANDBY1} )
    1    0
    2
RIGHT_BACKFWCAENCHANNELA1580DEFAULT_FWSETSTATES
any_in
not_in_state
    2
RAMPING_STANDBY1
STANDBY1
  1  1
terminate
RAMPING_STANDBY1
*BLOCK
  1  1
terminate
NOT_READY
*END_ACTION
*ACTION
&END_IN_STATE_WHEN0
    0    0
*BLOCK
  0  0
terminate
ERROR
*END_ACTION
*ACTION
&END_IN_STATE_WHEN1
    0    0
*BLOCK
  0  0
terminate
RAMPING_OFF
*END_ACTION
*ACTION
&END_IN_STATE_WHEN2
    0    0
*BLOCK
  0  0
terminate
RAMPING_STANDBY2
*END_ACTION
*ACTION
&END_IN_STATE_WHEN3
    0    0
*BLOCK
  0  0
terminate
RAMPING_READY
*END_ACTION
*ACTION
&END_IN_STATE_WHEN4
    0    0
*BLOCK
  0  0
terminate
NOT_READY
*END_ACTION
*END_STATE
*STATE
RAMPING_STANDBY2
    0
*WHEN
 ( ALL_IN RIGHT_BACKFWCAENCHANNELA1580DEFAULT_FWSETSTATES IN_STATE STANDBY2 )
    1    0
    2
RIGHT_BACKFWCAENCHANNELA1580DEFAULT_FWSETSTATES
all_in
in_state
    1
STANDBY2
do
&END_IN_STATE_WHEN0
    0
&THIS_OBJECT
*WHEN
 ( ANY_IN RIGHT_BACKFWCAENCHANNELA158......STATE {RAMPING_STANDBY2,STANDBY2} )
    1    0
    2
RIGHT_BACKFWCAENCHANNELA1580DEFAULT_FWSETSTATES
any_in
not_in_state
    2
RAMPING_STANDBY2
STANDBY2
do
&END_IN_STATE_WHEN1
    0
&THIS_OBJECT
*ACTION
DO_EMERGENCY_OFF
    0    0
*BLOCK
  0  0
do
DO_EMERGENCY_OFF
    0
&ALL_IN_RIGHT_BACKFWCAENCHANNELA1580DEFAULT_FWSETACTIONS
if
  1
 ( ANY_IN RIGHT_BACKFWCAENCHANNELA158......STATES NOT_IN_STATE EMERGENCY_OFF )
    1    0
    2
RIGHT_BACKFWCAENCHANNELA1580DEFAULT_FWSETSTATES
any_in
not_in_state
    1
EMERGENCY_OFF
  1  1
terminate
EMERGENCY_OFF
*BLOCK
  1  1
terminate
ERROR
*END_ACTION
*ACTION
GO_OFF
    0    0
*BLOCK
  0  0
do
GO_OFF
    0
&ALL_IN_RIGHT_BACKFWCAENCHANNELA1580DEFAULT_FWSETACTIONS
if
  1
 ( ANY_IN RIGHT_BACKFWCAENCHANNELA158......S NOT_IN_STATE {RAMPING_OFF, OFF} )
    1    0
    2
RIGHT_BACKFWCAENCHANNELA1580DEFAULT_FWSETSTATES
any_in
not_in_state
    2
RAMPING_OFF
OFF
  1  1
terminate
RAMPING_OFF
*BLOCK
  1  1
terminate
NOT_READY
*END_ACTION
*ACTION
GO_STANDBY1
    1    0
STRING
RUN_TYPE
"PHYSICS"
*BLOCK
  0  0
do
GO_STANDBY1
    1
RUN_TYPE
RUN_TYPE
&ALL_IN_RIGHT_BACKFWCAENCHANNELA1580DEFAULT_FWSETACTIONS
if
  1
 ( ANY_IN RIGHT_BACKFWCAENCHANNELA158......TATE {RAMPING_STANDBY1, STANDBY1} )
    1    0
    2
RIGHT_BACKFWCAENCHANNELA1580DEFAULT_FWSETSTATES
any_in
not_in_state
    2
RAMPING_STANDBY1
STANDBY1
  1  1
terminate
RAMPING_STANDBY1
*BLOCK
  1  1
terminate
NOT_READY
*END_ACTION
*ACTION
GO_STANDBY2
    1    0
STRING
RUN_TYPE
"PHYSICS"
*BLOCK
  0  0
do
GO_STANDBY2
    1
RUN_TYPE
RUN_TYPE
&ALL_IN_RIGHT_BACKFWCAENCHANNELA1580DEFAULT_FWSETACTIONS
if
  1
 ( ANY_IN RIGHT_BACKFWCAENCHANNELA158......TATE {RAMPING_STANDBY2, STANDBY2} )
    1    0
    2
RIGHT_BACKFWCAENCHANNELA1580DEFAULT_FWSETSTATES
any_in
not_in_state
    2
RAMPING_STANDBY2
STANDBY2
  1  1
terminate
RAMPING_STANDBY2
*BLOCK
  1  1
terminate
NOT_READY
*END_ACTION
*ACTION
GO_READY
    1    0
STRING
RUN_TYPE
"PHYSICS"
*BLOCK
  0  0
do
GO_READY
    1
RUN_TYPE
RUN_TYPE
&ALL_IN_RIGHT_BACKFWCAENCHANNELA1580DEFAULT_FWSETACTIONS
if
  1
 ( ANY_IN RIGHT_BACKFWCAENCHANNELA158......T_IN_STATE {RAMPING_READY, READY} )
    1    0
    2
RIGHT_BACKFWCAENCHANNELA1580DEFAULT_FWSETSTATES
any_in
not_in_state
    2
RAMPING_READY
READY
  1  1
terminate
RAMPING_READY
*BLOCK
  1  1
terminate
NOT_READY
*END_ACTION
*ACTION
&END_IN_STATE_WHEN0
    0    0
*BLOCK
  0  0
terminate
STANDBY2
*END_ACTION
*ACTION
&END_IN_STATE_WHEN1
    0    0
*BLOCK
  0  0
terminate
NOT_READY
*END_ACTION
*END_STATE
*STATE
STANDBY2
    0
*WHEN
 ( ANY_IN RIGHT_BACKFWCAENCHANNELA158......ES IN_STATE {ERROR,EMERGENCY_OFF} )
    1    0
    2
RIGHT_BACKFWCAENCHANNELA1580DEFAULT_FWSETSTATES
any_in
in_state
    2
ERROR
EMERGENCY_OFF
do
&END_IN_STATE_WHEN0
    0
&THIS_OBJECT
*WHEN
 ( ALL_IN RIGHT_BACKFWCAENCHANNELA158......STATE {RAMPING_STANDBY1,STANDBY1} )
    1    0
    2
RIGHT_BACKFWCAENCHANNELA1580DEFAULT_FWSETSTATES
all_in
in_state
    2
RAMPING_STANDBY1
STANDBY1
do
&END_IN_STATE_WHEN1
    0
&THIS_OBJECT
*WHEN
 ( ALL_IN RIGHT_BACKFWCAENCHANNELA158......ES IN_STATE {RAMPING_READY,READY} )
    1    0
    2
RIGHT_BACKFWCAENCHANNELA1580DEFAULT_FWSETSTATES
all_in
in_state
    2
RAMPING_READY
READY
do
&END_IN_STATE_WHEN2
    0
&THIS_OBJECT
*WHEN
 ( ALL_IN RIGHT_BACKFWCAENCHANNELA158......STATES IN_STATE {RAMPING_OFF,OFF} )
    1    0
    2
RIGHT_BACKFWCAENCHANNELA1580DEFAULT_FWSETSTATES
all_in
in_state
    2
RAMPING_OFF
OFF
do
&END_IN_STATE_WHEN3
    0
&THIS_OBJECT
*WHEN
 ( ANY_IN RIGHT_BACKFWCAENCHANNELA158......FWSETSTATES NOT_IN_STATE STANDBY2 )
    1    0
    2
RIGHT_BACKFWCAENCHANNELA1580DEFAULT_FWSETSTATES
any_in
not_in_state
    1
STANDBY2
do
&END_IN_STATE_WHEN4
    0
&THIS_OBJECT
*ACTION
GO_READY
    1    0
STRING
RUN_TYPE
"PHYSICS"
*BLOCK
  0  0
do
GO_READY
    1
RUN_TYPE
RUN_TYPE
&ALL_IN_RIGHT_BACKFWCAENCHANNELA1580DEFAULT_FWSETACTIONS
if
  1
 ( ANY_IN RIGHT_BACKFWCAENCHANNELA158......T_IN_STATE {RAMPING_READY, READY} )
    1    0
    2
RIGHT_BACKFWCAENCHANNELA1580DEFAULT_FWSETSTATES
any_in
not_in_state
    2
RAMPING_READY
READY
  1  1
terminate
RAMPING_READY
*BLOCK
  1  1
terminate
NOT_READY
*END_ACTION
*ACTION
GO_STANDBY1
    1    0
STRING
RUN_TYPE
"PHYSICS"
*BLOCK
  0  0
do
GO_STANDBY1
    1
RUN_TYPE
RUN_TYPE
&ALL_IN_RIGHT_BACKFWCAENCHANNELA1580DEFAULT_FWSETACTIONS
if
  1
 ( ANY_IN RIGHT_BACKFWCAENCHANNELA158......TATE {RAMPING_STANDBY1, STANDBY1} )
    1    0
    2
RIGHT_BACKFWCAENCHANNELA1580DEFAULT_FWSETSTATES
any_in
not_in_state
    2
RAMPING_STANDBY1
STANDBY1
  1  1
terminate
RAMPING_STANDBY1
*BLOCK
  1  1
terminate
NOT_READY
*END_ACTION
*ACTION
GO_OFF
    0    0
*BLOCK
  0  0
do
GO_OFF
    0
&ALL_IN_RIGHT_BACKFWCAENCHANNELA1580DEFAULT_FWSETACTIONS
if
  1
 ( ANY_IN RIGHT_BACKFWCAENCHANNELA158......S NOT_IN_STATE {RAMPING_OFF, OFF} )
    1    0
    2
RIGHT_BACKFWCAENCHANNELA1580DEFAULT_FWSETSTATES
any_in
not_in_state
    2
RAMPING_OFF
OFF
  1  1
terminate
RAMPING_OFF
*BLOCK
  1  1
terminate
NOT_READY
*END_ACTION
*ACTION
DO_EMERGENCY_OFF
    0    0
*BLOCK
  0  0
do
DO_EMERGENCY_OFF
    0
&ALL_IN_RIGHT_BACKFWCAENCHANNELA1580DEFAULT_FWSETACTIONS
if
  1
 ( ANY_IN RIGHT_BACKFWCAENCHANNELA158......STATES NOT_IN_STATE EMERGENCY_OFF )
    1    0
    2
RIGHT_BACKFWCAENCHANNELA1580DEFAULT_FWSETSTATES
any_in
not_in_state
    1
EMERGENCY_OFF
  1  1
terminate
EMERGENCY_OFF
*BLOCK
  1  1
terminate
ERROR
*END_ACTION
*ACTION
RESET
    0    0
*BLOCK
  0  0
do
RESET
    0
&ALL_IN_RIGHT_BACKFWCAENCHANNELA1580DEFAULT_FWSETACTIONS
terminate
NOT_READY
*END_ACTION
*ACTION
GO_STANDBY2
    1    0
STRING
RUN_TYPE
"PHYSICS"
*BLOCK
  0  0
do
GO_STANDBY2
    1
RUN_TYPE
RUN_TYPE
&ALL_IN_RIGHT_BACKFWCAENCHANNELA1580DEFAULT_FWSETACTIONS
if
  1
 ( ANY_IN RIGHT_BACKFWCAENCHANNELA158......TATE {RAMPING_STANDBY2, STANDBY2} )
    1    0
    2
RIGHT_BACKFWCAENCHANNELA1580DEFAULT_FWSETSTATES
any_in
not_in_state
    2
RAMPING_STANDBY2
STANDBY2
  1  1
terminate
RAMPING_STANDBY2
*BLOCK
  1  1
terminate
NOT_READY
*END_ACTION
*ACTION
&END_IN_STATE_WHEN0
    0    0
*BLOCK
  0  0
terminate
ERROR
*END_ACTION
*ACTION
&END_IN_STATE_WHEN1
    0    0
*BLOCK
  0  0
terminate
RAMPING_STANDBY1
*END_ACTION
*ACTION
&END_IN_STATE_WHEN2
    0    0
*BLOCK
  0  0
terminate
RAMPING_READY
*END_ACTION
*ACTION
&END_IN_STATE_WHEN3
    0    0
*BLOCK
  0  0
terminate
RAMPING_OFF
*END_ACTION
*ACTION
&END_IN_STATE_WHEN4
    0    0
*BLOCK
  0  0
terminate
NOT_READY
*END_ACTION
*END_STATE
*STATE
RAMPING_READY
    0
*WHEN
 ( ALL_IN RIGHT_BACKFWCAENCHANNELA1580DEFAULT_FWSETSTATES IN_STATE READY )
    1    0
    2
RIGHT_BACKFWCAENCHANNELA1580DEFAULT_FWSETSTATES
all_in
in_state
    1
READY
do
&END_IN_STATE_WHEN0
    0
&THIS_OBJECT
*WHEN
 ( ANY_IN RIGHT_BACKFWCAENCHANNELA158......OT_IN_STATE {RAMPING_READY,READY} )
    1    0
    2
RIGHT_BACKFWCAENCHANNELA1580DEFAULT_FWSETSTATES
any_in
not_in_state
    2
RAMPING_READY
READY
do
&END_IN_STATE_WHEN1
    0
&THIS_OBJECT
*ACTION
DO_EMERGENCY_OFF
    0    0
*BLOCK
  0  0
do
DO_EMERGENCY_OFF
    0
&ALL_IN_RIGHT_BACKFWCAENCHANNELA1580DEFAULT_FWSETACTIONS
if
  1
 ( ANY_IN RIGHT_BACKFWCAENCHANNELA158......STATES NOT_IN_STATE EMERGENCY_OFF )
    1    0
    2
RIGHT_BACKFWCAENCHANNELA1580DEFAULT_FWSETSTATES
any_in
not_in_state
    1
EMERGENCY_OFF
  1  1
terminate
EMERGENCY_OFF
*BLOCK
  1  1
terminate
ERROR
*END_ACTION
*ACTION
FAKE_READY
    0    0
*BLOCK
  0  0
do
FAKE_READY
    0
&ALL_IN_RIGHT_BACKFWCAENCHANNELA1580DEFAULT_FWSETACTIONS
terminate
READY
*END_ACTION
*ACTION
GO_OFF
    0    0
*BLOCK
  0  0
do
GO_OFF
    0
&ALL_IN_RIGHT_BACKFWCAENCHANNELA1580DEFAULT_FWSETACTIONS
if
  1
 ( ANY_IN RIGHT_BACKFWCAENCHANNELA158......S NOT_IN_STATE {RAMPING_OFF, OFF} )
    1    0
    2
RIGHT_BACKFWCAENCHANNELA1580DEFAULT_FWSETSTATES
any_in
not_in_state
    2
RAMPING_OFF
OFF
  1  1
terminate
RAMPING_OFF
*BLOCK
  1  1
terminate
NOT_READY
*END_ACTION
*ACTION
GO_STANDBY1
    1    0
STRING
RUN_TYPE
"PHYSICS"
*BLOCK
  0  0
do
GO_STANDBY1
    1
RUN_TYPE
RUN_TYPE
&ALL_IN_RIGHT_BACKFWCAENCHANNELA1580DEFAULT_FWSETACTIONS
if
  1
 ( ANY_IN RIGHT_BACKFWCAENCHANNELA158......TATE {RAMPING_STANDBY1, STANDBY1} )
    1    0
    2
RIGHT_BACKFWCAENCHANNELA1580DEFAULT_FWSETSTATES
any_in
not_in_state
    2
RAMPING_STANDBY1
STANDBY1
  1  1
terminate
RAMPING_STANDBY1
*BLOCK
  1  1
terminate
NOT_READY
*END_ACTION
*ACTION
GO_STANDBY2
    1    0
STRING
RUN_TYPE
"PHYSICS"
*BLOCK
  0  0
do
GO_STANDBY2
    1
RUN_TYPE
RUN_TYPE
&ALL_IN_RIGHT_BACKFWCAENCHANNELA1580DEFAULT_FWSETACTIONS
if
  1
 ( ANY_IN RIGHT_BACKFWCAENCHANNELA158......TATE {RAMPING_STANDBY2, STANDBY2} )
    1    0
    2
RIGHT_BACKFWCAENCHANNELA1580DEFAULT_FWSETSTATES
any_in
not_in_state
    2
RAMPING_STANDBY2
STANDBY2
  1  1
terminate
RAMPING_STANDBY2
*BLOCK
  1  1
terminate
NOT_READY
*END_ACTION
*ACTION
GO_READY
    1    0
STRING
RUN_TYPE
"PHYSICS"
*BLOCK
  0  0
do
GO_READY
    1
RUN_TYPE
RUN_TYPE
&ALL_IN_RIGHT_BACKFWCAENCHANNELA1580DEFAULT_FWSETACTIONS
if
  1
 ( ANY_IN RIGHT_BACKFWCAENCHANNELA158......T_IN_STATE {RAMPING_READY, READY} )
    1    0
    2
RIGHT_BACKFWCAENCHANNELA1580DEFAULT_FWSETSTATES
any_in
not_in_state
    2
RAMPING_READY
READY
  1  1
terminate
RAMPING_READY
*BLOCK
  1  1
terminate
NOT_READY
*END_ACTION
*ACTION
&END_IN_STATE_WHEN0
    0    0
*BLOCK
  0  0
terminate
READY
*END_ACTION
*ACTION
&END_IN_STATE_WHEN1
    0    0
*BLOCK
  0  0
terminate
NOT_READY
*END_ACTION
*END_STATE
*STATE
READY
    0
*WHEN
 ( ANY_IN RIGHT_BACKFWCAENCHANNELA158......ES IN_STATE {ERROR,EMERGENCY_OFF} )
    1    0
    2
RIGHT_BACKFWCAENCHANNELA1580DEFAULT_FWSETSTATES
any_in
in_state
    2
ERROR
EMERGENCY_OFF
do
&END_IN_STATE_WHEN0
    0
&THIS_OBJECT
*WHEN
 ( ALL_IN RIGHT_BACKFWCAENCHANNELA158......STATE {RAMPING_STANDBY1,STANDBY1} )
    1    0
    2
RIGHT_BACKFWCAENCHANNELA1580DEFAULT_FWSETSTATES
all_in
in_state
    2
RAMPING_STANDBY1
STANDBY1
do
&END_IN_STATE_WHEN1
    0
&THIS_OBJECT
*WHEN
 ( ALL_IN RIGHT_BACKFWCAENCHANNELA158......STATE {RAMPING_STANDBY2,STANDBY2} )
    1    0
    2
RIGHT_BACKFWCAENCHANNELA1580DEFAULT_FWSETSTATES
all_in
in_state
    2
RAMPING_STANDBY2
STANDBY2
do
&END_IN_STATE_WHEN2
    0
&THIS_OBJECT
*WHEN
 ( ALL_IN RIGHT_BACKFWCAENCHANNELA158......STATES IN_STATE {RAMPING_OFF,OFF} )
    1    0
    2
RIGHT_BACKFWCAENCHANNELA1580DEFAULT_FWSETSTATES
all_in
in_state
    2
RAMPING_OFF
OFF
do
&END_IN_STATE_WHEN3
    0
&THIS_OBJECT
*WHEN
 ( ANY_IN RIGHT_BACKFWCAENCHANNELA1580DEFAULT_FWSETSTATES NOT_IN_STATE READY )
    1    0
    2
RIGHT_BACKFWCAENCHANNELA1580DEFAULT_FWSETSTATES
any_in
not_in_state
    1
READY
do
&END_IN_STATE_WHEN4
    0
&THIS_OBJECT
*ACTION
GO_STANDBY2
    1    0
STRING
RUN_TYPE
"PHYSICS"
*BLOCK
  0  0
do
GO_STANDBY2
    1
RUN_TYPE
RUN_TYPE
&ALL_IN_RIGHT_BACKFWCAENCHANNELA1580DEFAULT_FWSETACTIONS
if
  1
 ( ANY_IN RIGHT_BACKFWCAENCHANNELA158......TATE {RAMPING_STANDBY2, STANDBY2} )
    1    0
    2
RIGHT_BACKFWCAENCHANNELA1580DEFAULT_FWSETSTATES
any_in
not_in_state
    2
RAMPING_STANDBY2
STANDBY2
  1  1
terminate
RAMPING_STANDBY2
*BLOCK
  1  1
terminate
NOT_READY
*END_ACTION
*ACTION
GO_STANDBY1
    1    0
STRING
RUN_TYPE
"PHYSICS"
*BLOCK
  0  0
do
GO_STANDBY1
    1
RUN_TYPE
RUN_TYPE
&ALL_IN_RIGHT_BACKFWCAENCHANNELA1580DEFAULT_FWSETACTIONS
if
  1
 ( ANY_IN RIGHT_BACKFWCAENCHANNELA158......TATE {RAMPING_STANDBY1, STANDBY1} )
    1    0
    2
RIGHT_BACKFWCAENCHANNELA1580DEFAULT_FWSETSTATES
any_in
not_in_state
    2
RAMPING_STANDBY1
STANDBY1
  1  1
terminate
RAMPING_STANDBY1
*BLOCK
  1  1
terminate
NOT_READY
*END_ACTION
*ACTION
GO_OFF
    0    0
*BLOCK
  0  0
do
GO_OFF
    0
&ALL_IN_RIGHT_BACKFWCAENCHANNELA1580DEFAULT_FWSETACTIONS
if
  1
 ( ANY_IN RIGHT_BACKFWCAENCHANNELA158......S NOT_IN_STATE {RAMPING_OFF, OFF} )
    1    0
    2
RIGHT_BACKFWCAENCHANNELA1580DEFAULT_FWSETSTATES
any_in
not_in_state
    2
RAMPING_OFF
OFF
  1  1
terminate
RAMPING_OFF
*BLOCK
  1  1
terminate
NOT_READY
*END_ACTION
*ACTION
DO_EMERGENCY_OFF
    0    0
*BLOCK
  0  0
do
DO_EMERGENCY_OFF
    0
&ALL_IN_RIGHT_BACKFWCAENCHANNELA1580DEFAULT_FWSETACTIONS
if
  1
 ( ANY_IN RIGHT_BACKFWCAENCHANNELA158......STATES NOT_IN_STATE EMERGENCY_OFF )
    1    0
    2
RIGHT_BACKFWCAENCHANNELA1580DEFAULT_FWSETSTATES
any_in
not_in_state
    1
EMERGENCY_OFF
  1  1
terminate
EMERGENCY_OFF
*BLOCK
  1  1
terminate
ERROR
*END_ACTION
*ACTION
RESET
    0    0
*BLOCK
  0  0
do
RESET
    0
&ALL_IN_RIGHT_BACKFWCAENCHANNELA1580DEFAULT_FWSETACTIONS
terminate
NOT_READY
*END_ACTION
*ACTION
STEP
    2    0
INT
STEP_NR
0
STRING
RUN_TYPE
""
*BLOCK
  0  0
do
STEP
    2
STEP_NR
STEP_NR
RUN_TYPE
RUN_TYPE
&ALL_IN_RIGHT_BACKFWCAENCHANNELA1580DEFAULT_FWSETACTIONS
if
  1
 ( ALL_IN RIGHT_BACKFWCAENCHANNELA1580DEFAULT_FWSETSTATES NOT_IN_STATE READY )
    1    0
    2
RIGHT_BACKFWCAENCHANNELA1580DEFAULT_FWSETSTATES
all_in
not_in_state
    1
READY
  1  1
terminate
READY
*BLOCK
  1  1
terminate
NOT_READY
*END_ACTION
*ACTION
GO_READY
    1    0
STRING
RUN_TYPE
"PHYSICS"
*BLOCK
  0  0
do
GO_READY
    1
RUN_TYPE
RUN_TYPE
&ALL_IN_RIGHT_BACKFWCAENCHANNELA1580DEFAULT_FWSETACTIONS
if
  1
 ( ANY_IN RIGHT_BACKFWCAENCHANNELA158......T_IN_STATE {RAMPING_READY, READY} )
    1    0
    2
RIGHT_BACKFWCAENCHANNELA1580DEFAULT_FWSETSTATES
any_in
not_in_state
    2
RAMPING_READY
READY
  1  1
terminate
RAMPING_READY
*BLOCK
  1  1
terminate
NOT_READY
*END_ACTION
*ACTION
&END_IN_STATE_WHEN0
    0    0
*BLOCK
  0  0
terminate
ERROR
*END_ACTION
*ACTION
&END_IN_STATE_WHEN1
    0    0
*BLOCK
  0  0
terminate
RAMPING_STANDBY1
*END_ACTION
*ACTION
&END_IN_STATE_WHEN2
    0    0
*BLOCK
  0  0
terminate
RAMPING_STANDBY2
*END_ACTION
*ACTION
&END_IN_STATE_WHEN3
    0    0
*BLOCK
  0  0
terminate
RAMPING_OFF
*END_ACTION
*ACTION
&END_IN_STATE_WHEN4
    0    0
*BLOCK
  0  0
terminate
NOT_READY
*END_ACTION
*END_STATE
*STATE
RAMPING_OFF
    0
*WHEN
 ( ALL_IN RIGHT_BACKFWCAENCHANNELA1580DEFAULT_FWSETSTATES IN_STATE OFF )
    1    0
    2
RIGHT_BACKFWCAENCHANNELA1580DEFAULT_FWSETSTATES
all_in
in_state
    1
OFF
do
&END_IN_STATE_WHEN0
    0
&THIS_OBJECT
*WHEN
 ( ANY_IN RIGHT_BACKFWCAENCHANNELA158......ES NOT_IN_STATE {RAMPING_OFF,OFF} )
    1    0
    2
RIGHT_BACKFWCAENCHANNELA1580DEFAULT_FWSETSTATES
any_in
not_in_state
    2
RAMPING_OFF
OFF
do
&END_IN_STATE_WHEN1
    0
&THIS_OBJECT
*ACTION
DO_EMERGENCY_OFF
    0    0
*BLOCK
  0  0
do
DO_EMERGENCY_OFF
    0
&ALL_IN_RIGHT_BACKFWCAENCHANNELA1580DEFAULT_FWSETACTIONS
if
  1
 ( ANY_IN RIGHT_BACKFWCAENCHANNELA158......STATES NOT_IN_STATE EMERGENCY_OFF )
    1    0
    2
RIGHT_BACKFWCAENCHANNELA1580DEFAULT_FWSETSTATES
any_in
not_in_state
    1
EMERGENCY_OFF
  1  1
terminate
EMERGENCY_OFF
*BLOCK
  1  1
terminate
ERROR
*END_ACTION
*ACTION
GO_OFF
    0    0
*BLOCK
  0  0
do
GO_OFF
    0